data/ENWL_4w_Network1_Feeder1/Loads_v2.txt
! Imported from Loads.txt, with modified neutral terminal
! ---------------------------------------------------------------------------
New Load.LOAD1 Phases=1 Bus1=34.1.4 kV=0.2309 kW=1.0  PF=0.95
New Load.LOAD2 Phases=1 Bus1=47.2.4 kV=0.2309 kW=1.0  PF=0.95
New Load.LOAD3 Phases=1 Bus1=70.1.4 kV=0.2309 kW=1.0  PF=0.95
New Load.LOAD4 Phases=1 Bus1=73.1.4 kV=0.2309 kW=1.0  PF=0.95
New Load.LOAD5 Phases=1 Bus1=74.1.4 kV=0.2309 kW=1.0  PF=0.95
New Load.LOAD6 Phases=1 Bus1=83.2.4 kV=0.2309 kW=1.0  PF=0.95
New Load.LOAD7 Phases=1 Bus1=178.2.4 kV=0.2309 kW=1.0  PF=0.95
New Load.LOAD8 Phases=1 Bus1=208.3.4 kV=0.2309 kW=1.0  PF=0.95
New Load.LOAD9 Phases=1 Bus1=225.1.4 kV=0.2309 kW=1.0  PF=0.95
New Load.LOAD10 Phases=1 Bus1=248.2.4 kV=0.2309 kW=1.0  PF=0.95
New Load.LOAD11 Phases=1 Bus1=249.2.4 kV=0.2309 kW=1.0  PF=0.95
New Load.LOAD12 Phases=1 Bus1=264.3.4 kV=0.2309 kW=1.0  PF=0.95
! New Load.LOAD13 Phases=1 Bus1=276.2.4 kV=0.2309 kW=1.0  PF=0.95
! New Load.LOAD13 Phases=3 Bus1=276.1.2.3.4 kV=0.4 kW=12.0  PF=0.85
New Load.LOAD14 Phases=1 Bus1=289.1.4 kV=0.2309 kW=1.0  PF=0.95
New Load.LOAD15 Phases=1 Bus1=314.2.4 kV=0.2309 kW=1.0  PF=0.95
New Load.LOAD16 Phases=1 Bus1=320.3.4 kV=0.2309 kW=1.0  PF=0.95
New Load.LOAD17 Phases=1 Bus1=327.3.4 kV=0.2309 kW=1.0  PF=0.95
New Load.LOAD18 Phases=1 Bus1=337.3.4 kV=0.2309 kW=1.0  PF=0.95
New Load.LOAD19 Phases=1 Bus1=342.3.4 kV=0.2309 kW=1.0  PF=0.95
New Load.LOAD20 Phases=1 Bus1=349.1.4 kV=0.2309 kW=1.0  PF=0.95
New Load.LOAD21 Phases=1 Bus1=387.1.4 kV=0.2309 kW=1.0  PF=0.95
New Load.LOAD22 Phases=1 Bus1=388.1.4 kV=0.2309 kW=1.0  PF=0.95
New Load.LOAD23 Phases=1 Bus1=406.2.4 kV=0.2309 kW=1.0  PF=0.95
New Load.LOAD24 Phases=1 Bus1=458.3.4 kV=0.2309 kW=1.0  PF=0.95
New Load.LOAD25 Phases=1 Bus1=502.1.4 kV=0.2309 kW=1.0  PF=0.95
New Load.LOAD26 Phases=1 Bus1=522.2.4 kV=0.2309 kW=1.0  PF=0.95
New Load.LOAD27 Phases=1 Bus1=539.3.4 kV=0.2309 kW=1.0  PF=0.95
! New Load.LOAD28 Phases=1 Bus1=556.3.4 kV=0.2309 kW=1.0  PF=0.95
! New Load.LOAD28 Phases=3 Bus1=556.1.2.3.4 kV=0.4 kW=12.0  PF=0.85
New Load.LOAD29 Phases=1 Bus1=562.1.4 kV=0.2309 kW=1.0  PF=0.95
New Load.LOAD30 Phases=1 Bus1=563.1.4 kV=0.2309 kW=1.0  PF=0.95
New Load.LOAD31 Phases=1 Bus1=611.1.4 kV=0.2309 kW=1.0  PF=0.95
New Load.LOAD32 Phases=1 Bus1=614.3.4 kV=0.2309 kW=1.0  PF=0.95
New Load.LOAD33 Phases=1 Bus1=619.3.4 kV=0.2309 kW=1.0  PF=0.95
New Load.LOAD34 Phases=1 Bus1=629.1.4 kV=0.2309 kW=1.0  PF=0.95
New Load.LOAD35 Phases=1 Bus1=639.2.4 kV=0.2309 kW=1.0  PF=0.95
New Load.LOAD36 Phases=1 Bus1=676.2.4 kV=0.2309 kW=1.0  PF=0.95
New Load.LOAD37 Phases=1 Bus1=682.2.4 kV=0.2309 kW=1.0  PF=0.95
New Load.LOAD38 Phases=1 Bus1=688.2.4 kV=0.2309 kW=1.0  PF=0.95
New Load.LOAD39 Phases=1 Bus1=701.3.4 kV=0.2309 kW=1.0  PF=0.95
New Load.LOAD40 Phases=1 Bus1=702.2.4 kV=0.2309 kW=1.0  PF=0.95
New Load.LOAD41 Phases=1 Bus1=755.2.4 kV=0.2309 kW=1.0  PF=0.95
New Load.LOAD42 Phases=1 Bus1=778.3.4 kV=0.2309 kW=1.0  PF=0.95
New Load.LOAD43 Phases=1 Bus1=780.3.4 kV=0.2309 kW=1.0  PF=0.95
New Load.LOAD44 Phases=1 Bus1=785.2.4 kV=0.2309 kW=1.0  PF=0.95
New Load.LOAD45 Phases=1 Bus1=813.2.4 kV=0.2309 kW=1.0  PF=0.95
New Load.LOAD46 Phases=1 Bus1=817.1.4 kV=0.2309 kW=1.0  PF=0.95
New Load.LOAD47 Phases=1 Bus1=835.3.4 kV=0.2309 kW=1.0  PF=0.95
New Load.LOAD48 Phases=1 Bus1=860.1.4 kV=0.2309 kW=1.0  PF=0.95
New Load.LOAD49 Phases=1 Bus1=861.1.4 kV=0.2309 kW=1.0  PF=0.95
New Load.LOAD50 Phases=1 Bus1=886.2.4 kV=0.2309 kW=1.0  PF=0.95
New Load.LOAD51 Phases=1 Bus1=896.1.4 kV=0.2309 kW=1.0  PF=0.95
New Load.LOAD52 Phases=1 Bus1=898.1.4 kV=0.2309 kW=1.0  PF=0.95
! New Load.LOAD53 Phases=1 Bus1=899.2.4 kV=0.2309 kW=1.0  PF=0.95
! New Load.LOAD53 Phases=3 Bus1=899.1.2.3.4 kV=0.2309 kW=24.0  PF=0.85
New Load.LOAD54 Phases=1 Bus1=900.1.4 kV=0.2309 kW=1.0  PF=0.95
New Load.LOAD55 Phases=1 Bus1=906.1.4 kV=0.2309 kW=1.0  PF=0.95
! ---------------------------------------------------------------------------